         142
 molec
H      17.693   13.826   -0.000
H      19.858   12.564   -0.055
H      21.106   10.363   -0.147
H      22.366    5.656   -0.260
H      22.367    8.165   -0.250
H      19.852    1.261   -0.081
H      17.690   -0.000    0.000
H      21.104    3.459   -0.170
H       2.530   -0.005    0.047
H      15.160   -0.002    0.055
H       0.000   -0.000    0.000
H      -2.163    1.262   -0.054
H      -3.415    3.463   -0.091
H      -4.677    8.168   -0.104
H      -4.678    5.662   -0.113
H      -2.159   12.565   -0.043
H      10.109   13.837   -0.058
H       7.585   13.838   -0.078
H       5.062   13.833   -0.064
H       2.535   13.828   -0.041
H      15.163   13.830    0.006
H       0.007   13.825   -0.030
H      -3.412   10.366   -0.074
H      12.635   13.835   -0.017
H      10.108   -0.010    0.103
H       7.583   -0.012    0.095
H       5.058   -0.011    0.078
H      12.631   -0.009    0.092
N      16.399   10.554   -0.025
C      16.395   12.026   -0.012
C      17.696   12.718   -0.017
C      17.647    8.370   -0.062
C      17.649    9.826   -0.052
C      18.926   10.548   -0.074
C      18.892   12.022   -0.048
C      17.647    4.002   -0.051
C      17.647    5.456   -0.062
C      18.904    6.183   -0.106
C      18.905    7.641   -0.104
C      20.167    8.373   -0.145
C      20.145    9.813   -0.124
C      18.924    3.277   -0.083
C      20.143    4.009   -0.139
C      20.167    5.449   -0.153
C      21.411    6.214   -0.211
C      21.410    7.608   -0.207
C      17.692    1.107   -0.016
C      18.887    1.805   -0.060
B       5.076    5.458   -0.028
C       5.074    3.986   -0.006
C       3.814    3.268   -0.001
C       3.812    1.794    0.028
C      11.362    3.269    0.041
C       2.533    1.102    0.027
C       3.820    7.641   -0.055
N       3.821    6.185   -0.044
C      11.355    7.644   -0.023
B       2.563    5.457   -0.041
N      11.355    6.185   -0.008
C       2.560    3.989   -0.022
B      10.089    5.462   -0.453
C      16.393    3.274   -0.011
C       1.298    3.272   -0.024
C      10.100    3.993    0.017
C      16.391    1.801    0.007
C       1.300    1.800   -0.003
C       8.845    3.268    0.031
C      15.157    1.105    0.040
C      -0.002    1.108   -0.014
C      11.366   12.034   -0.033
B       2.563    9.831   -0.059
N      11.365   10.561   -0.029
C       2.562    8.362   -0.059
B      10.103    9.834   -0.047
C      16.386    7.642   -0.037
C       1.306    7.640   -0.059
C      10.093    8.368   -0.392
N      16.388    6.185   -0.034
C       1.302    6.185   -0.053
B      15.132    5.460   -0.008
C       0.046    5.456   -0.058
C       8.817    7.660   -0.960
C      15.134    3.991    0.005
C       0.044    3.999   -0.048
B       7.574    5.459   -0.471
C      13.877    3.271    0.030
C      -1.233    3.278   -0.059
C       7.591    3.992    0.002
C      13.880    1.797    0.050
C      -1.198    1.805   -0.043
C      10.110   12.730   -0.053
C       1.294   10.554   -0.055
C       8.847   12.036   -0.064
B      15.134    9.833   -0.016
C       0.046    9.825   -0.060
N       8.847   10.561   -0.056
C      15.133    8.363   -0.018
C       0.045    8.369   -0.064
B       7.592    9.832   -0.069
C      13.872    7.642   -0.008
C      -1.212    7.642   -0.073
C       7.574    8.371   -0.508
N      13.873    6.187    0.001
C      -1.213    6.184   -0.073
C       6.335    7.643   -0.061
B      12.616    5.458    0.012
C      -2.475    5.453   -0.086
N       6.336    6.183   -0.041
C      12.618    3.988    0.028
C      -2.453    4.011   -0.081
C       7.588   12.729   -0.074
N      13.881   10.559   -0.013
C      -1.231   10.549   -0.060
C       6.330   12.033   -0.071
B      12.619    9.837   -0.018
C      -2.451    9.815   -0.071
N       6.331   10.559   -0.067
C      12.618    8.366   -0.011
C      -2.475    8.375   -0.080
B       5.076    9.836   -0.066
C      -3.720    7.612   -0.096
C       5.077    8.363   -0.058
C      -3.720    6.217   -0.100
C       5.064   12.725   -0.066
C       3.813   12.027   -0.059
N       3.817   10.558   -0.062
C       2.538   12.720   -0.048
C       1.301   12.023   -0.047
C       6.329    3.267    0.017
C      15.162   12.722   -0.002
C       0.003   12.718   -0.040
C      13.882   12.031   -0.009
C      -1.194   12.021   -0.047
C      12.634   12.727   -0.018
C       6.327    1.790    0.048
C       8.845    1.790    0.062
C      11.364    1.792    0.068
C      10.106    1.097    0.080
C       7.584    1.095    0.070
C       5.060    1.096    0.054
C      12.630    1.099    0.074
N       8.816    6.187   -0.950
