  142
 frame      1
 H         22.1720      4.8510     -0.0670
 H         20.9380      7.0320     -0.0990
 H         18.7530      8.3110     -0.0740
 H         14.0630      9.6350     -0.0550
 H         16.5710      9.6030     -0.0370
 H          9.6370      7.1730     -0.1960
 H          8.3480      5.0260     -0.2170
 H         11.8500      8.3990     -0.1260
 H          8.1420    -10.1250      0.2510
 H          8.3130      2.4960     -0.1860
 H          8.1130    -12.6520      0.3840
 H          9.3460    -14.8280      0.5250
 H         11.5290    -16.1060      0.6290
 H         16.2170    -17.4280      0.7360
 H         13.7110    -17.3960      0.7170
 H         20.6470    -14.9700      0.6370
 H         22.0820     -2.7270      0.2490
 H         22.0490     -5.2480      0.3550
 H         22.0110     -7.7700      0.4260
 H         21.9720    -10.2960      0.4890
 H         22.1430      2.3220      0.0130
 H         21.9360    -12.8230      0.5640
 H         18.4310    -16.1930      0.6860
 H         22.1140     -0.2040      0.1220
 H          8.2380     -2.5540     -0.0620
 H          8.2030     -5.0770      0.0310
 H          8.1700     -7.6000      0.1340
 H          8.2730     -0.0320     -0.1370
 C         18.8818      3.5990     -0.0340
 C         20.3541      3.5770     -0.0300
 C         21.0647      4.8686     -0.0620
 C         16.7150      4.8780     -0.0630
 C         18.1710      4.8599     -0.0570
 C         18.9101      6.1281     -0.0710
 C         20.3834      6.0739     -0.0790
 C         12.3470      4.9329     -0.1210
 C         13.8020      4.9150     -0.0940
 C         14.5451      6.1639     -0.0850
 C         16.0029      6.1449     -0.0710
 C         16.7510      7.3981     -0.0650
 C         18.1917      7.3566     -0.0700
 C         11.6399      6.2200     -0.1400
 C         12.3873      7.4306     -0.1180
 C         13.8280      7.4361     -0.0890
 C         14.6078      8.6715     -0.0650
 C         16.0022      8.6526     -0.0540
 C          9.4552      5.0145     -0.1890
 C         10.1675      6.2010     -0.1780
 C         13.6337     -7.6491      0.2981
 C         12.1700     -7.6331      0.2612
 C         11.4312     -8.8830      0.2911
 C          9.9579     -8.8671      0.2460
 C         11.5335     -1.3409     -0.0075
 C          9.2485    -10.1360      0.2830
 C         15.8040     -8.9310      0.3926
 C         14.3440     -8.9129      0.3646
 C         15.9070     -1.4018      0.1033
 C         13.6019    -10.1620      0.3970
 C         14.4450     -1.3841      0.0754
 C         12.1400    -10.1450      0.3620
 C         13.7018     -2.6243      0.5531
 C         11.6041      3.6900     -0.1260
 C         11.4021    -11.3971      0.4000
 C         12.2427     -2.6109      0.0690
 C         10.1320      3.7041     -0.1600
 C          9.9300    -11.3761      0.3620
 C         11.4983     -3.8560      0.0880
 C          9.4195      2.4799     -0.1590
 C          9.2203    -12.6676      0.4100
 C         20.2961     -1.4471      0.1617
 C         17.9749    -10.2180      0.4630
 C         18.8196     -1.4299      0.1415
 C         16.5121    -10.1990      0.4470
 C         18.0767     -2.6807      0.1949
 C         15.9719      3.6260     -0.0530
 C         15.7700    -11.4430      0.4820
 C         16.6145     -2.6617      0.5226
 C         14.5130      3.6441     -0.0720
 C         14.3110    -11.4240      0.4600
 C         13.7710      2.3999     -0.0630
 C         13.5680    -12.6750      0.5000
 C         15.8796     -3.9062      1.1290
 C         14.4030     -3.8893      1.0966
 C         12.3090      2.4189     -0.0920
 C         12.1121    -12.6578      0.4740
 C         13.6655     -5.1381      0.6561
 C         11.5681      1.1730     -0.0819
 C         11.3729    -13.9251      0.5200
 C         12.2085     -5.1183      0.1688
 C         10.0949      1.1931     -0.1180
 C          9.9015    -13.8709      0.4870
 C         20.9755     -2.7120      0.2320
 C         18.6789    -11.4890      0.5090
 C         20.2641     -3.9631      0.2775
 C         18.1430      2.3460     -0.0070
 C         17.9360    -12.7309      0.5490
 C         18.7860     -3.9451      0.2551
 C         16.6810      2.3630     -0.0209
 C         16.4809    -12.7129      0.5370
 C         18.0418     -5.1893      0.3026
 C         15.9390      1.1130      0.0037
 C         15.7369    -13.9599      0.5810
 C         16.5821     -5.1743      0.7231
 C         14.4800      1.1310     -0.0213
 C         14.2791    -13.9409      0.5650
 C         15.8390     -6.4166      0.3121
 C         13.7357     -0.1153      0.0022
 C         13.5310    -15.1931      0.6130
 C         14.3762     -6.3985      0.2790
 C         12.2729     -0.0959     -0.0288
 C         12.0903    -15.1525      0.5920
 C         20.9415     -5.2320      0.3380
 C         18.8519      1.0831      0.0401
 C         18.6431    -14.0170      0.6000
 C         20.2280     -6.4790      0.3706
 C         18.1131     -0.1679      0.0801
 C         17.8938    -15.2256      0.6450
 C         18.7508     -6.4591      0.3504
 C         16.6502     -0.1512      0.0572
 C         16.4530    -15.2311      0.6390
 C         18.0110     -7.7041      0.3842
 C         15.6732    -16.4646      0.6890
 C         16.5473     -7.6850      0.3601
 C         14.2788    -16.4465      0.6780
 C         20.9035     -7.7540      0.4160
 C         20.1891     -8.9940      0.4440
 C         18.7159     -8.9730      0.4311
 C         20.8646    -10.2800      0.4840
 C         20.1520    -11.5041      0.5170
 C         11.4644     -6.3701      0.1875
 C         21.0355      2.3350      0.0090
 C         20.8288    -12.8126      0.5620
 C         20.3260      1.0670      0.0520
 C         20.1165    -13.9989      0.6020
 C         21.0065     -0.1910      0.1110
 C          9.9879     -6.3540      0.1407
 C         10.0218     -3.8380      0.0405
 C         10.0570     -1.3211     -0.0503
 C          9.3445     -2.5690     -0.0270
 C          9.3095     -5.0890      0.0680
 C          9.2766     -7.6110      0.1700
 C          9.3805     -0.0470     -0.1070
