   142
 frame    500
 H          22.172       4.851      -0.067
 H          20.938       7.032      -0.099
 H          18.753       8.311      -0.074
 H          14.063       9.635      -0.055
 H          16.571       9.603      -0.037
 H           9.637       7.173      -0.196
 H           8.348       5.026      -0.217
 H          11.850       8.399      -0.126
 H           8.142     -10.125       0.251
 H           8.313       2.496      -0.186
 H           8.113     -12.652       0.384
 H           9.346     -14.828       0.525
 H          11.529     -16.106       0.629
 H          16.217     -17.428       0.736
 H          13.711     -17.396       0.717
 H          20.647     -14.970       0.637
 H          22.082      -2.727       0.249
 H          22.049      -5.248       0.355
 H          22.011      -7.770       0.426
 H          21.972     -10.296       0.489
 H          22.143       2.322       0.013
 H          21.936     -12.823       0.564
 H          18.431     -16.193       0.686
 H          22.114      -0.204       0.122
 H           8.238      -2.554      -0.062
 H           8.203      -5.077       0.031
 H           8.170      -7.600       0.134
 H           8.273      -0.032      -0.137
 C          18.885       3.573      -0.201
 C          20.355       3.562      -0.016
 C          21.052       4.871      -0.057
 C          16.694       4.889      -0.230
 C          18.153       4.848      -0.240
 C          18.904       6.127      -0.297
 C          20.391       6.075      -0.233
 C          12.379       4.920      -0.301
 C          13.828       4.923      -0.255
 C          14.563       6.179      -0.206
 C          15.989       6.161      -0.192
 C          16.761       7.398      -0.258
 C          18.213       7.363      -0.275
 C          11.653       6.216      -0.366
 C          12.365       7.444      -0.330
 C          13.822       7.430      -0.281
 C          14.601       8.672      -0.191
 C          16.006       8.656      -0.180
 C           9.465       5.016      -0.189
 C          10.158       6.205      -0.324
 C          13.599      -7.642      -0.227
 C          12.152      -7.653       0.085
 C          11.407      -8.897       0.064
 C           9.951      -8.881       0.162
 C          11.543      -1.344      -0.079
 C           9.240     -10.128       0.336
 C          15.836      -8.924      -0.339
 C          14.333      -8.908      -0.370
 C          15.922      -1.459      -0.325
 C          13.623     -10.176      -0.206
 C          14.436      -1.438      -0.353
 C          12.161     -10.140      -0.016
 C          11.603       3.665      -0.311
 C          11.400     -11.373       0.203
 C          12.246      -2.610      -0.032
 C          10.128       3.694      -0.141
 C           9.916     -11.359       0.365
 C          11.495      -3.861      -0.009
 C           9.418       2.479      -0.120
 C           9.226     -12.672       0.420
 C          20.305      -1.439       0.055
 C          17.964     -10.205       0.073
 C          18.813      -1.437       0.059
 C          16.510     -10.215      -0.145
 C          18.075      -2.690       0.074
 C          15.962       3.631      -0.353
 C          15.769     -11.476       0.130
 C          16.628      -2.677       0.049
 C          14.526       3.649      -0.376
 C          14.324     -11.456       0.110
 C          13.803       2.366      -0.613
 C          13.593     -12.688       0.293
 C          15.877      -3.908       0.246
 C          14.408      -3.892       0.223
 C          12.323       2.391      -0.429
 C          12.133     -12.650       0.263
 C          13.669      -5.136       0.061
 C          11.547       1.172      -0.262
 C          11.386     -13.932       0.262
 C          12.213      -5.132       0.041
 C          10.089       1.193      -0.180
 C           9.898     -13.878       0.339
 C          20.981      -2.701       0.156
 C          18.683     -11.460       0.303
 C          20.267      -3.958       0.257
 C          18.130       2.316      -0.338
 C          17.927     -12.715       0.332
 C          18.794      -3.948       0.129
 C          16.662       2.332      -0.562
 C          16.465     -12.730       0.317
 C          18.038      -5.206       0.142
 C          15.963       1.049      -0.658
 C          15.726     -13.979       0.408
 C          16.592      -5.178       0.104
 C          14.470       1.068      -0.685
 C          14.299     -13.962       0.393
 C          15.861      -6.397      -0.200
 C          13.711      -0.163      -0.456
 C          13.514     -15.193       0.401
 C          14.369      -6.382      -0.223
 C          12.269      -0.089      -0.154
 C          12.063     -15.173       0.372
 C          20.948      -5.239       0.242
 C          18.874       1.084      -0.149
 C          18.640     -14.027       0.342
 C          20.243      -6.500       0.232
 C          18.127      -0.167      -0.057
 C          17.920     -15.245       0.433
 C          18.748      -6.458       0.230
 C          16.687      -0.194      -0.385
 C          16.474     -15.229       0.420
 C          18.032      -7.724       0.186
 C          15.686     -16.452       0.563
 C          16.599      -7.681      -0.163
 C          14.272     -16.436       0.552
 C          20.912      -7.777       0.302
 C          20.193      -9.006       0.343
 C          18.749      -8.988       0.187
 C          20.869     -10.270       0.531
 C          20.161     -11.490       0.510
 C          11.466      -6.372       0.076
 C          21.041       2.331       0.059
 C          20.818     -12.815       0.550
 C          20.335       1.070      -0.017
 C          20.131     -14.010       0.455
 C          21.014      -0.180       0.013
 C           9.983      -6.374       0.008
 C          10.012      -3.832       0.043
 C          10.059      -1.303      -0.165
 C           9.342      -2.555      -0.109
 C           9.310      -5.100      -0.025
 C           9.278      -7.635       0.050
 C           9.380      -0.036      -0.206

