  142
 frame      1
 H         22.1720      4.8510     -0.0670
 H         20.9380      7.0320     -0.0990
 H         18.7530      8.3110     -0.0740
 H         14.0630      9.6350     -0.0550
 H         16.5710      9.6030     -0.0370
 H          9.6370      7.1730     -0.1960
 H          8.3480      5.0260     -0.2170
 H         11.8500      8.3990     -0.1260
 H          8.1420    -10.1250      0.2510
 H          8.3130      2.4960     -0.1860
 H          8.1130    -12.6520      0.3840
 H          9.3460    -14.8280      0.5250
 H         11.5290    -16.1060      0.6290
 H         16.2170    -17.4280      0.7360
 H         13.7110    -17.3960      0.7170
 H         20.6470    -14.9700      0.6370
 H         22.0820     -2.7270      0.2490
 H         22.0490     -5.2480      0.3550
 H         22.0110     -7.7700      0.4260
 H         21.9720    -10.2960      0.4890
 H         22.1430      2.3220      0.0130
 H         21.9360    -12.8230      0.5640
 H         18.4310    -16.1930      0.6860
 H         22.1140     -0.2040      0.1220
 H          8.2380     -2.5540     -0.0620
 H          8.2030     -5.0770      0.0310
 H          8.1700     -7.6000      0.1340
 H          8.2730     -0.0320     -0.1370
 C         18.8819      3.5978     -0.0340
 C         20.3542      3.5773     -0.0300
 C         21.0648      4.8686     -0.0620
 C         16.7144      4.8784     -0.0630
 C         18.1709      4.8606     -0.0570
 C         18.9099      6.1275     -0.0710
 C         20.3835      6.0739     -0.0790
 C         12.3472      4.9336     -0.1210
 C         13.8013      4.9145     -0.0940
 C         14.5455      6.1638     -0.0850
 C         16.0029      6.1450     -0.0710
 C         16.7513      7.3981     -0.0650
 C         18.1915      7.3569     -0.0700
 C         11.6399      6.2196     -0.1400
 C         12.3877      7.4307     -0.1180
 C         13.8277      7.4361     -0.0890
 C         14.6080      8.6716     -0.0650
 C         16.0020      8.6527     -0.0540
 C          9.4553      5.0146     -0.1890
 C         10.1675      6.2009     -0.1780
 N         13.6314     -7.6489      0.2980
 C         12.1700     -7.6333      0.2612
 C         11.4324     -8.8825      0.2911
 C          9.9575     -8.8669      0.2460
 C         11.5347     -1.3410     -0.0074
 C          9.2485    -10.1360      0.2830
 N         15.8020     -8.9313      0.3928
 B         14.3448     -8.9130      0.3647
 N         15.9050     -1.4019      0.1016
 N         13.5999    -10.1613      0.3970
 B         14.4459     -1.3844      0.0753
 C         12.1402    -10.1459      0.3621
 N         13.7002     -2.6241      0.5539
 C         11.6047      3.6893     -0.1260
 C         11.4027    -11.3961      0.4000
 C         12.2424     -2.6108      0.0690
 C         10.1318      3.7038     -0.1600
 C          9.9298    -11.3757      0.3620
 C         11.4997     -3.8560      0.0878
 C          9.4195      2.4800     -0.1590
 C          9.2203    -12.6677      0.4100
 C         20.2965     -1.4473      0.1618
 C         17.9793    -10.2190      0.4631
 C         18.8197     -1.4303      0.1416
 B         16.5101    -10.1987      0.4470
 C         18.0809     -2.6808      0.1936
 C         15.9681      3.6295     -0.0531
 N         15.7707    -11.4448      0.4821
 B         16.6120     -2.6620      0.5228
 C         14.5140      3.6451     -0.0720
 B         14.3124    -11.4226      0.4600
 N         13.7695      2.4016     -0.0631
 C         13.5655    -12.6788      0.5001
 N         15.8773     -3.9060      1.1337
 C         12.3091      2.4200     -0.0920
 C         12.1128    -12.6588      0.4740
 N         13.6638     -5.1383      0.6570
 C         11.5696      1.1725     -0.0819
 C         11.3728    -13.9248      0.5200
 C         12.2081     -5.1185      0.1688
 C         10.0944      1.1929     -0.1180
 C          9.9014    -13.8709      0.4870
 C         20.9755     -2.7119      0.2320
 C         18.6790    -11.4876      0.5090
 C         20.2644     -3.9631      0.2776
 C         18.1475      2.3463     -0.0070
 C         17.9352    -12.7312      0.5490
 C         18.7862     -3.9451      0.2549
 B         16.6802      2.3602     -0.0209
 C         16.4809    -12.7126      0.5370
 C         18.0454     -5.1895      0.3013
 N         15.9369      1.1126      0.0038
 C         15.7369    -13.9594      0.5810
 B         16.5802     -5.1741      0.7232
 B         14.4820      1.1309     -0.0212
 C         14.2784    -13.9409      0.5650
 N         15.8371     -6.4165      0.3100
 N         13.7331     -0.1150      0.0021
 C         13.5310    -15.1932      0.6130
 B         14.3771     -6.3984      0.2789
 C         12.2731     -0.0958     -0.0288
 C         12.0905    -15.1525      0.5920
 C         20.9416     -5.2320      0.3380
 C         18.8522      1.0825      0.0401
 C         18.6428    -14.0169      0.6000
 C         20.2284     -6.4789      0.3707
 C         18.1176     -0.1675      0.0803
 C         17.8937    -15.2258      0.6450
 C         18.7510     -6.4587      0.3505
 B         16.6476     -0.1510      0.0574
 C         16.4533    -15.2308      0.6390
 C         18.0157     -7.7047      0.3843
 C         15.6730    -16.4647      0.6890
 B         16.5447     -7.6850      0.3604
 C         14.2790    -16.4467      0.6780
 C         20.9036     -7.7541      0.4160
 C         20.1895     -8.9940      0.4440
 C         18.7162     -8.9723      0.4310
 C         20.8645    -10.2799      0.4840
 C         20.1523    -11.5043      0.5170
 C         11.4656     -6.3699      0.1876
 C         21.0355      2.3350      0.0090
 C         20.8288    -12.8126      0.5620
 C         20.3265      1.0669      0.0520
 C         20.1166    -13.9989      0.6020
 C         21.0066     -0.1908      0.1110
 C          9.9874     -6.3540      0.1406
 C         10.0212     -3.8381      0.0404
 C         10.0563     -1.3213     -0.0503
 C          9.3447     -2.5688     -0.0270
 C          9.3097     -5.0890      0.0680
 C          9.2767     -7.6110      0.1700
 C          9.3806     -0.0468     -0.1070
 B         14.4041     -3.8894      1.0958
