  142
 frame      1
 H         22.1720      4.8510     -0.0670
 H         20.9380      7.0320     -0.0990
 H         18.7530      8.3110     -0.0740
 H         14.0630      9.6350     -0.0550
 H         16.5710      9.6030     -0.0370
 H          9.6370      7.1730     -0.1960
 H          8.3480      5.0260     -0.2170
 H         11.8500      8.3990     -0.1260
 H          8.1420    -10.1250      0.2510
 H          8.3130      2.4960     -0.1860
 H          8.1130    -12.6520      0.3840
 H          9.3460    -14.8280      0.5250
 H         11.5290    -16.1060      0.6290
 H         16.2170    -17.4280      0.7360
 H         13.7110    -17.3960      0.7170
 H         20.6470    -14.9700      0.6370
 H         22.0820     -2.7270      0.2490
 H         22.0490     -5.2480      0.3550
 H         22.0110     -7.7700      0.4260
 H         21.9720    -10.2960      0.4890
 H         22.1430      2.3220      0.0130
 H         21.9360    -12.8230      0.5640
 H         18.4310    -16.1930      0.6860
 H         22.1140     -0.2040      0.1220
 H          8.2380     -2.5540     -0.0620
 H          8.2030     -5.0770      0.0310
 H          8.1700     -7.6000      0.1340
 H          8.2730     -0.0320     -0.1370
 C         18.8819      3.5991     -0.0340
 C         20.3540      3.5771     -0.0300
 C         21.0647      4.8686     -0.0620
 C         16.7150      4.8780     -0.0630
 C         18.1710      4.8599     -0.0570
 C         18.9101      6.1281     -0.0710
 C         20.3834      6.0739     -0.0790
 C         12.3470      4.9329     -0.1210
 C         13.8021      4.9150     -0.0940
 C         14.5451      6.1639     -0.0850
 C         16.0029      6.1449     -0.0710
 C         16.7510      7.3981     -0.0650
 C         18.1917      7.3566     -0.0700
 C         11.6399      6.2200     -0.1400
 C         12.3873      7.4306     -0.1180
 C         13.8280      7.4361     -0.0890
 C         14.6078      8.6715     -0.0650
 C         16.0022      8.6526     -0.0540
 C          9.4552      5.0145     -0.1890
 C         10.1675      6.2010     -0.1780
 C         13.6315     -7.6531      0.2979
 C         12.1703     -7.6338      0.2613
 C         11.4310     -8.8828      0.2911
 C          9.9578     -8.8671      0.2460
 C         11.5334     -1.3411     -0.0076
 C          9.2485    -10.1359      0.2830
 C         15.8042     -8.9303      0.3927
 C         14.3431     -8.9126      0.3647
 C         15.9069     -1.4026      0.1034
 C         13.6020    -10.1623      0.3971
 C         14.4441     -1.3840      0.0754
 C         12.1402    -10.1449      0.3620
 C         13.7003     -2.6214      0.5518
 C         11.6041      3.6901     -0.1260
 C         11.4021    -11.3972      0.4000
 C         12.2429     -2.6102      0.0691
 C         10.1320      3.7041     -0.1600
 C          9.9299    -11.3761      0.3620
 C         11.4989     -3.8564      0.0880
 C          9.4195      2.4799     -0.1590
 C          9.2203    -12.6676      0.4100
 C         20.2961     -1.4472      0.1617
 C         17.9748    -10.2180      0.4630
 C         18.8194     -1.4298      0.1415
 C         16.5124    -10.1989      0.4470
 C         18.0762     -2.6809      0.1951
 C         15.9719      3.6260     -0.0530
 C         15.7700    -11.4430      0.4820
 C         16.6149     -2.6609      0.5220
 C         14.5131      3.6441     -0.0720
 C         14.3109    -11.4241      0.4600
 C         13.7710      2.3999     -0.0630
 C         13.5680    -12.6750      0.5000
 N         15.8795     -3.9057      1.1319
 C         12.3090      2.4189     -0.0920
 C         12.1121    -12.6577      0.4740
 N         13.6646     -5.1382      0.6571
 C         11.5681      1.1731     -0.0819
 C         11.3729    -13.9251      0.5200
 C         12.2079     -5.1184      0.1689
 C         10.0949      1.1931     -0.1180
 C          9.9015    -13.8709      0.4870
 C         20.9755     -2.7119      0.2320
 C         18.6789    -11.4891      0.5090
 C         20.2641     -3.9629      0.2775
 C         18.1430      2.3459     -0.0070
 C         17.9361    -12.7308      0.5490
 C         18.7865     -3.9459      0.2550
 C         16.6811      2.3629     -0.0209
 C         16.4809    -12.7129      0.5370
 C         18.0452     -5.1894      0.3014
 C         15.9390      1.1129      0.0037
 C         15.7368    -13.9599      0.5810
 B         16.5812     -5.1740      0.7231
 C         14.4799      1.1311     -0.0213
 C         14.2792    -13.9409      0.5650
 N         15.8399     -6.4183      0.3108
 C         13.7359     -0.1152      0.0021
 C         13.5310    -15.1932      0.6130
 B         14.3772     -6.3966      0.2782
 C         12.2730     -0.0959     -0.0288
 C         12.0903    -15.1525      0.5920
 C         20.9413     -5.2321      0.3380
 C         18.8519      1.0831      0.0401
 C         18.6431    -14.0170      0.6000
 C         20.2281     -6.4791      0.3707
 C         18.1130     -0.1679      0.0801
 C         17.8938    -15.2256      0.6450
 C         18.7511     -6.4583      0.3505
 C         16.6506     -0.1512      0.0573
 C         16.4529    -15.2311      0.6390
 C         18.0105     -7.7040      0.3841
 C         15.6732    -16.4646      0.6890
 C         16.5470     -7.6850      0.3604
 C         14.2788    -16.4465      0.6780
 C         20.9036     -7.7541      0.4160
 C         20.1892     -8.9939      0.4440
 C         18.7156     -8.9731      0.4311
 C         20.8645    -10.2800      0.4840
 C         20.1520    -11.5041      0.5170
 C         11.4648     -6.3697      0.1876
 C         21.0355      2.3349      0.0090
 C         20.8288    -12.8126      0.5620
 C         20.3260      1.0670      0.0520
 C         20.1165    -13.9990      0.6020
 C         21.0065     -0.1910      0.1110
 C          9.9880     -6.3537      0.1406
 C         10.0218     -3.8383      0.0405
 C         10.0569     -1.3211     -0.0503
 C          9.3445     -2.5689     -0.0270
 C          9.3094     -5.0890      0.0680
 C          9.2766     -7.6111      0.1700
 C          9.3805     -0.0470     -0.1070
 B         14.4034     -3.8896      1.0971

