   142
 frame    250
 H          22.172       4.851      -0.067
 H          20.938       7.032      -0.099
 H          18.753       8.311      -0.074
 H          14.063       9.635      -0.055
 H          16.571       9.603      -0.037
 H           9.637       7.173      -0.196
 H           8.348       5.026      -0.217
 H          11.850       8.399      -0.126
 H           8.142     -10.125       0.251
 H           8.313       2.496      -0.186
 H           8.113     -12.652       0.384
 H           9.346     -14.828       0.525
 H          11.529     -16.106       0.629
 H          16.217     -17.428       0.736
 H          13.711     -17.396       0.717
 H          20.647     -14.970       0.637
 H          22.082      -2.727       0.249
 H          22.049      -5.248       0.355
 H          22.011      -7.770       0.426
 H          21.972     -10.296       0.489
 H          22.143       2.322       0.013
 H          21.936     -12.823       0.564
 H          18.431     -16.193       0.686
 H          22.114      -0.204       0.122
 H           8.238      -2.554      -0.062
 H           8.203      -5.077       0.031
 H           8.170      -7.600       0.134
 H           8.273      -0.032      -0.137
 C          18.897       3.621      -0.376
 C          20.384       3.591      -0.318
 C          21.066       4.872      -0.136
 C          16.732       4.849      -0.086
 C          18.154       4.872      -0.386
 C          18.899       6.157      -0.351
 C          20.380       6.081      -0.187
 C          12.372       4.943      -0.448
 C          13.788       4.889      -0.128
 C          14.546       6.127       0.042
 C          16.005       6.108       0.051
 C          16.735       7.404       0.001
 C          18.177       7.366      -0.112
 C          11.657       6.249      -0.411
 C          12.408       7.443      -0.172
 C          13.845       7.435      -0.025
 C          14.608       8.689      -0.032
 C          16.000       8.672       0.001
 C           9.452       5.024      -0.268
 C          10.170       6.211      -0.288
 C          13.637      -7.699      -0.523
 C          12.208      -7.671      -0.266
 C          11.462      -8.902       0.026
 C           9.964      -8.882       0.097
 C          11.564      -1.328      -0.432
 C           9.236     -10.151       0.068
 C          15.825      -8.992      -0.387
 C          14.357      -8.977      -0.408
 C          15.940      -1.394      -0.680
 C          13.605     -10.161       0.014
 C          14.445      -1.375      -0.721
 C          12.125     -10.179       0.078
 C          13.700      -2.640      -0.647
 C          11.599       3.710      -0.479
 C          11.399     -11.432       0.018
 C          12.249      -2.624      -0.510
 C          10.116       3.724      -0.441
 C           9.911     -11.392       0.056
 C          11.535      -3.869      -0.343
 C           9.415       2.499      -0.365
 C           9.221     -12.672       0.313
 C          20.281      -1.426      -0.040
 C          18.007     -10.249       0.178
 C          18.814      -1.418      -0.293
 C          16.527     -10.199       0.067
 C          18.093      -2.694      -0.379
 C          15.990       3.591      -0.093
 C          15.793     -11.402       0.395
 C          16.648      -2.672      -0.578
 C          14.494       3.607      -0.112
 C          14.297     -11.387       0.365
 C          13.775       2.388      -0.383
 C          13.552     -12.651       0.427
 C          15.901      -3.935      -0.631
 C          14.426      -3.916      -0.676
 C          12.301       2.449      -0.329
 C          12.140     -12.690       0.111
 C          13.672      -5.177      -0.564
 C          11.600       1.186      -0.314
 C          11.395     -13.961       0.225
 C          12.214      -5.152      -0.428
 C          10.105       1.207      -0.251
 C           9.909     -13.878       0.381
 C          20.946      -2.699       0.188
 C          18.702     -11.525       0.132
 C          20.243      -3.966       0.050
 C          18.169       2.368      -0.246
 C          17.923     -12.756       0.205
 C          18.772      -3.961      -0.181
 C          16.688       2.351      -0.341
 C          16.503     -12.686       0.481
 C          18.058      -5.221      -0.289
 C          15.958       1.127      -0.725
 C          15.741     -13.910       0.666
 C          16.615      -5.214      -0.496
 C          14.493       1.145      -0.745
 C          14.275     -13.896       0.634
 C          15.871      -6.479      -0.521
 C          13.738      -0.109      -0.759
 C          13.545     -15.187       0.663
 C          14.377      -6.462      -0.553
 C          12.309      -0.081      -0.513
 C          12.109     -15.158       0.546
 C          20.916      -5.234       0.289
 C          18.833       1.090      -0.185
 C          18.630     -14.049       0.301
 C          20.213      -6.505       0.154
 C          18.087      -0.161      -0.414
 C          17.880     -15.231       0.593
 C          18.754      -6.498      -0.099
 C          16.675      -0.151      -0.718
 C          16.438     -15.227       0.701
 C          17.992      -7.734      -0.147
 C          15.672     -16.472       0.717
 C          16.574      -7.736      -0.463
 C          14.280     -16.456       0.711
 C          20.906      -7.763       0.350
 C          20.191      -9.002       0.298
 C          18.704      -8.986       0.180
 C          20.885     -10.287       0.265
 C          20.181     -11.515       0.215
 C          11.488      -6.410      -0.269
 C          21.048       2.349      -0.199
 C          20.828     -12.810       0.465
 C          20.319       1.076      -0.077
 C          20.116     -14.005       0.487
 C          21.008      -0.180       0.053
 C          10.017      -6.385      -0.074
 C          10.055      -3.842      -0.196
 C          10.087      -1.294      -0.258
 C           9.380      -2.557      -0.086
 C           9.348      -5.095       0.006
 C           9.284      -7.621       0.101
 C           9.383      -0.033      -0.176
