     142
frame 1
 H   17.693   13.826   -0.000
 H   19.858   12.564   -0.055
 H   21.106   10.363   -0.147
 H   22.366   5.656   -0.260
 H   22.367   8.165   -0.250
 H   19.852   1.261   -0.081
 H   17.690   -0.000   0.000
 H   21.104   3.459   -0.170
 H   2.530   -0.005   0.047
 H   15.160   -0.002   0.055
 H   0.000   -0.000   0.000
 H   -2.163   1.262   -0.054
 H   -3.415   3.463   -0.091
 H   -4.677   8.168   -0.104
 H   -4.678   5.662   -0.113
 H   -2.159   12.565   -0.043
 H   10.109   13.837   -0.058
 H   7.585   13.838   -0.078
 H   5.062   13.833   -0.064
 H   2.535   13.828   -0.041
 H   15.163   13.830   0.006
 H   0.007   13.825   -0.030
 H   -3.412   10.366   -0.074
 H   12.635   13.835   -0.017
 H   10.108   -0.010   0.103
 H   7.583   -0.012   0.095
 H   5.058   -0.011   0.078
 H   12.631   -0.009   0.092
 C   16.396   10.553   -0.024
 C   16.395   12.025   -0.012
 C   17.696   12.719   -0.017
 C   17.648   8.369   -0.062
 C   17.650   9.825   -0.052
 C   18.926   10.548   -0.074
 C   18.892   12.022   -0.048
 C   17.647   4.001   -0.051
 C   17.647   5.455   -0.062
 C   18.905   6.183   -0.106
 C   18.905   7.641   -0.104
 C   20.167   8.373   -0.145
 C   20.145   9.814   -0.124
 C   18.924   3.277   -0.083
 C   20.143   4.009   -0.139
 C   20.167   5.449   -0.153
 C   21.411   6.214   -0.211
 C   21.410   7.608   -0.207
 C   17.692   1.108   -0.016
 C   18.887   1.804   -0.060
 C   5.076   5.452   -0.027
 C   5.073   3.990   -0.006
 C   3.814   3.269   -0.001
 C   3.812   1.794   0.028
 C   11.362   3.271   0.041
 C   2.533   1.102   0.027
 C   3.820   7.640   -0.056
 C   3.820   6.182   -0.043
 C   11.356   7.642   -0.020
 C   2.561   5.454   -0.041
 C   11.355   6.183   -0.010
 C   2.559   3.994   -0.022
 C   10.090   5.459   -0.454
 C   16.394   3.274   -0.011
 C   1.298   3.273   -0.025
 C   10.100   3.996   0.015
 C   16.390   1.801   0.007
 C   1.300   1.800   -0.003
 C   8.845   3.269   0.031
 C   15.158   1.105   0.040
 C   -0.002   1.108   -0.014
 C   11.367   12.035   -0.033
 C   2.560   9.834   -0.059
 C   11.365   10.558   -0.029
 C   2.561   8.365   -0.059
 C   10.103   9.836   -0.046
 C   16.390   7.639   -0.037
 C   1.305   7.642   -0.059
 C   10.092   8.370   -0.391
 C   16.387   6.185   -0.034
 C   1.308   6.183   -0.053
 C   15.134   5.456   -0.008
 C   0.042   5.453   -0.058
 C   8.818   7.658   -0.967
 C   15.134   3.996   0.005
 C   0.043   4.000   -0.048
 C   7.573   5.456   -0.471
 C   13.877   3.272   0.030
 C   -1.233   3.277   -0.059
 C   7.590   3.995   0.001
 C   13.879   1.797   0.050
 C   -1.198   1.805   -0.043
 C   10.110   12.731   -0.053
 C   1.300   10.551   -0.055
 C   8.848   12.036   -0.064
 C   15.135   9.835   -0.016
 C   0.046   9.824   -0.060
 C   8.847   10.558   -0.057
 C   15.130   8.368   -0.018
 C   0.045   8.369   -0.064
 C   7.592   9.834   -0.069
 C   13.872   7.641   -0.008
 C   -1.212   7.642   -0.073
 C   7.574   8.373   -0.506
 C   13.872   6.186   0.001
 C   -1.212   6.183   -0.073
 C   6.336   7.642   -0.058
 C   12.616   5.453   0.012
 C   -2.475   5.453   -0.086
 C   6.336   6.181   -0.043
 C   12.617   3.993   0.028
 C   -2.453   4.012   -0.081
 C   7.587   12.730   -0.074
 C   13.880   10.556   -0.013
 C   -1.231   10.548   -0.060
 C   6.330   12.034   -0.071
 C   12.619   9.839   -0.018
 C   -2.451   9.815   -0.071
 C   6.332   10.556   -0.067
 C   12.617   8.368   -0.011
 C   -2.475   8.375   -0.080
 C   5.076   9.837   -0.066
 C   -3.720   7.612   -0.096
 C   5.077   8.366   -0.058
 C   -3.720   6.217   -0.100
 C   5.063   12.726   -0.066
 C   3.814   12.028   -0.059
 C   3.817   10.555   -0.062
 C   2.537   12.720   -0.048
 C   1.302   12.024   -0.047
 C   6.329   3.269   0.017
 C   15.161   12.723   -0.002
 C   0.002   12.718   -0.040
 C   13.883   12.031   -0.009
 C   -1.194   12.022   -0.047
 C   12.633   12.728   -0.018
 C   6.327   1.790   0.048
 C   8.845   1.790   0.063
 C   11.364   1.792   0.068
 C   10.107   1.097   0.080
 C   7.585   1.095   0.070
 C   5.060   1.096   0.054
 C   12.630   1.099   0.074
 C   8.816   6.185   -0.945
