142
frame	1
H  17.693000  13.826000  0.000000
H  19.858000  12.564000  0.000000
H  21.106000  10.363000  0.000000
H  22.366000  5.656000  0.000000
H  22.367000  8.165000  0.000000
H  19.852000  1.261000  0.000000
H  17.690000  -0.000000  0.000000
H  21.104000  3.459000  0.000000
H  2.530000  -0.005000  0.000000
H  15.160000  -0.002000  0.000000
H  0.000000  -0.000000  0.000000
H  -2.163000  1.262000  0.000000
H  -3.415000  3.463000  0.000000
H  -4.677000  8.168000  0.000000
H  -4.678000  5.662000  0.000000
H  -2.159000  12.565000  0.000000
H  10.109000  13.837000  0.000000
H  7.585000  13.838000  0.000000
H  5.062000  13.833000  0.000000
H  2.535000  13.828000  0.000000
H  15.163000  13.830000  0.000000
H  0.007000  13.825000  0.000000
H  -3.412000  10.366000  0.000000
H  12.635000  13.835000  0.000000
H  10.108000  -0.010000  0.000000
H  7.583000  -0.012000  0.000000
H  5.058000  -0.011000  0.000000
H  12.631000  -0.009000  0.000000
C  16.391431  10.552750  0.000000
C  16.391431  12.029000  0.000000
C  17.670251  12.724214  0.000000
C  17.670251  8.370778  0.000000
C  17.670251  9.823833  0.000000
C  18.905140  10.552750  0.000000
C  18.905140  12.029000  0.000000
C  17.670251  4.000667  0.000000
C  17.670251  5.453110  0.000000
C  18.905140  6.198400  0.000000
C  18.905140  7.632998  0.000000
C  20.154752  8.370778  0.000000
C  20.154752  9.823833  0.000000
C  18.905140  3.272500  0.000000
C  20.154752  4.000667  0.000000
C  20.154752  5.453110  0.000000
C  21.410000  6.198400  0.000000
C  21.410000  7.632998  0.000000
C  17.670251  1.101286  0.000000
C  18.905140  1.797813  0.000000
C  5.067562  5.453110  0.000000
C  5.067562  4.000667  0.000000
C  3.815929  3.272500  0.000000
C  3.815929  1.797813  0.000000
C  11.360357  3.272500  0.000000
C  2.546438  1.101286  0.000000
C  3.815929  7.632998  0.000000
C  3.815929  6.198400  0.000000
C  11.360357  7.632998  0.000000
C  2.546438  5.453110  0.000000
C  11.360357  6.198400  0.000000
C  2.546438  4.000667  0.000000
C  10.100062  5.453110  0.000000
C  16.391431  3.272500  0.000000
C  1.302141  3.272500  0.000000
C  10.100062  4.000667  0.000000
C  16.391431  1.797813  0.000000
C  1.302141  1.797813  0.000000
C  8.831143  3.272500  0.000000
C  15.145938  1.101286  0.000000
C  0.021251  1.101286  0.000000
C  11.360357  12.029000  0.000000
C  2.546438  9.823833  0.000000
C  11.360357  10.552750  0.000000
C  2.546438  8.370778  0.000000
C  10.100062  9.823833  0.000000
C  16.391431  7.632998  0.000000
C  1.302141  7.632998  0.000000
C  10.100062  8.370778  0.000000
C  16.391431  6.198400  0.000000
C  1.302141  6.198400  0.000000
C  15.145938  5.453110  0.000000
C  0.021251  5.453110  0.000000
N  8.831143  7.632998  0.000000
C  15.145938  4.000667  0.000000
C  0.021251  4.000667  0.000000
N  7.582124  5.453110  0.000000
C  13.876357  3.272500  0.000000
C  -1.215288  3.272500  0.000000
C  7.582124  4.000667  0.000000
C  13.876357  1.797813  0.000000
C  -1.215288  1.797813  0.000000
C  10.100062  12.724214  0.000000
C  1.302141  10.552750  0.000000
C  8.831143  12.029000  0.000000
C  15.145938  9.823833  0.000000
C  0.021251  9.823833  0.000000
C  8.831143  10.552750  0.000000
C  15.145938  8.370778  0.000000
C  0.021251  8.370778  0.000000
C  7.582124  9.823833  0.000000
C  13.876357  7.632998  0.000000
C  -1.215288  7.632998  0.000000
B  7.582124  8.370778  0.000000
C  13.876357  6.198400  0.000000
C  -1.215288  6.198400  0.000000
N  6.331857  7.632998  0.000000
C  12.623562  5.453110  0.000000
C  -2.463248  5.453110  0.000000
B  6.331857  6.198400  0.000000
C  12.623562  4.000667  0.000000
C  -2.463248  4.000667  0.000000
C  7.582124  12.724214  0.000000
C  13.876357  10.552750  0.000000
C  -1.215288  10.552750  0.000000
C  6.331857  12.029000  0.000000
C  12.623562  9.823833  0.000000
C  -2.463248  9.823833  0.000000
C  6.331857  10.552750  0.000000
C  12.623562  8.370778  0.000000
C  -2.463248  8.370778  0.000000
C  5.067562  9.823833  0.000000
C  -3.720000  7.632998  0.000000
C  5.067562  8.370778  0.000000
C  -3.720000  6.198400  0.000000
C  5.067562  12.724214  0.000000
C  3.815929  12.029000  0.000000
C  3.815929  10.552750  0.000000
C  2.546438  12.724214  0.000000
C  1.302141  12.029000  0.000000
C  6.331857  3.272500  0.000000
C  15.145938  12.724214  0.000000
C  0.021251  12.724214  0.000000
C  13.876357  12.029000  0.000000
C  -1.215288  12.029000  0.000000
C  12.623562  12.724214  0.000000
C  6.331857  1.797813  0.000000
C  8.831143  1.797813  0.000000
C  11.360357  1.797813  0.000000
C  10.100062  1.101286  0.000000
C  7.582124  1.101286  0.000000
C  5.067562  1.101286  0.000000
C  12.623562  1.101286  0.000000
B  8.831143  6.198400  0.000000
