142
frame	1
H  17.693000  13.826000  0.000000
H  19.858000  12.564000  0.000000
H  21.106000  10.363000  0.000000
H  22.366000  5.656000  0.000000
H  22.367000  8.165000  0.000000
H  19.852000  1.261000  0.000000
H  17.690000  -0.000000  0.000000
H  21.104000  3.459000  0.000000
H  2.530000  -0.005000  0.000000
H  15.160000  -0.002000  0.000000
H  0.000000  -0.000000  0.000000
H  -2.163000  1.262000  0.000000
H  -3.415000  3.463000  0.000000
H  -4.677000  8.168000  0.000000
H  -4.678000  5.662000  0.000000
H  -2.159000  12.565000  0.000000
H  10.109000  13.837000  0.000000
H  7.585000  13.838000  0.000000
H  5.062000  13.833000  0.000000
H  2.535000  13.828000  0.000000
H  15.163000  13.830000  0.000000
H  0.007000  13.825000  0.000000
H  -3.412000  10.366000  0.000000
H  12.635000  13.835000  0.000000
H  10.108000  -0.010000  0.000000
H  7.583000  -0.012000  0.000000
H  5.058000  -0.011000  0.000000
H  12.631000  -0.009000  0.000000
B  16.391070  10.554000  0.000000
N  16.391070  12.027500  0.000000
B  17.669064  12.723000  0.000000
B  17.669064  8.371221  0.000000
N  17.669064  9.824833  0.000000
B  18.903781  10.554000  0.000000
N  18.903781  12.027500  0.000000
B  17.669064  4.001500  0.000000
N  17.669064  5.454832  0.000000
B  18.903781  6.197400  0.000000
N  18.903781  7.635248  0.000000
B  20.153131  8.371221  0.000000
N  20.153131  9.824833  0.000000
N  18.903781  3.271875  0.000000
B  20.153131  4.001500  0.000000
N  20.153131  5.454832  0.000000
B  21.409000  6.197400  0.000000
N  21.409000  7.635248  0.000000
N  17.669064  1.097000  0.000000
B  18.903781  1.799313  0.000000
N  5.068062  5.454832  0.000000
B  5.068062  4.001500  0.000000
N  3.815071  3.271875  0.000000
B  3.815071  1.799313  0.000000
N  11.360143  3.271875  0.000000
N  2.546750  1.097000  0.000000
N  3.815071  7.635248  0.000000
B  3.815071  6.197400  0.000000
N  11.360143  7.635248  0.000000
N  2.546750  5.454832  0.000000
B  11.360143  6.197400  0.000000
B  2.546750  4.001500  0.000000
N  10.098875  5.454832  0.000000
N  16.391070  3.271875  0.000000
N  1.301641  3.271875  0.000000
B  10.098875  4.001500  0.000000
B  16.391070  1.799313  0.000000
B  1.301641  1.799313  0.000000
N  8.831143  3.271875  0.000000
N  15.145438  1.097000  0.000000
N  0.022750  1.097000  0.000000
N  11.360143  12.027500  0.000000
N  2.546750  9.824833  0.000000
B  11.360143  10.554000  0.000000
B  2.546750  8.371221  0.000000
N  10.098875  9.824833  0.000000
N  16.391070  7.635248  0.000000
N  1.301641  7.635248  0.000000
B  10.098875  8.371221  0.000000
B  16.391070  6.197400  0.000000
B  1.301641  6.197400  0.000000
N  15.145438  5.454832  0.000000
N  0.022750  5.454832  0.000000
N  8.831143  7.635248  0.000000
B  15.145438  4.001500  0.000000
B  0.022750  4.001500  0.000000
N  7.582124  5.454832  0.000000
N  13.876858  3.271875  0.000000
N  -1.214572  3.271875  0.000000
B  7.582124  4.001500  0.000000
B  13.876858  1.799313  0.000000
B  -1.214572  1.799313  0.000000
B  10.098875  12.723000  0.000000
B  1.301641  10.554000  0.000000
N  8.831143  12.027500  0.000000
N  15.145438  9.824833  0.000000
N  0.022750  9.824833  0.000000
B  8.831143  10.554000  0.000000
B  15.145438  8.371221  0.000000
B  0.022750  8.371221  0.000000
N  7.582124  9.824833  0.000000
N  13.876858  7.635248  0.000000
N  -1.214572  7.635248  0.000000
B  7.582124  8.371221  0.000000
B  13.876858  6.197400  0.000000
B  -1.214572  6.197400  0.000000
N  6.331143  7.635248  0.000000
N  12.623562  5.454832  0.000000
N  -2.465127  5.454832  0.000000
B  6.331143  6.197400  0.000000
B  12.623562  4.001500  0.000000
B  -2.465127  4.001500  0.000000
B  7.582124  12.723000  0.000000
B  13.876858  10.554000  0.000000
B  -1.214572  10.554000  0.000000
N  6.331143  12.027500  0.000000
N  12.623562  9.824833  0.000000
N  -2.465127  9.824833  0.000000
B  6.331143  10.554000  0.000000
B  12.623562  8.371221  0.000000
B  -2.465127  8.371221  0.000000
N  5.068062  9.824833  0.000000
N  -3.723000  7.635248  0.000000
B  5.068062  8.371221  0.000000
B  -3.723000  6.197400  0.000000
B  5.068062  12.723000  0.000000
N  3.815071  12.027500  0.000000
B  3.815071  10.554000  0.000000
B  2.546750  12.723000  0.000000
N  1.301641  12.027500  0.000000
N  6.331143  3.271875  0.000000
B  15.145438  12.723000  0.000000
B  0.022750  12.723000  0.000000
N  13.876858  12.027500  0.000000
N  -1.214572  12.027500  0.000000
B  12.623562  12.723000  0.000000
B  6.331143  1.799313  0.000000
B  8.831143  1.799313  0.000000
B  11.360143  1.799313  0.000000
N  10.098875  1.097000  0.000000
N  7.582124  1.097000  0.000000
N  5.068062  1.097000  0.000000
N  12.623562  1.097000  0.000000
B  8.831143  6.197400  0.000000
